@<TRIPOS>MOLECULE
*****
 7 6 0 0 0
SMALL
GASTEIGER

@<TRIPOS>ATOM
      1 C          -4.2584    0.9817   -0.0098 C.3     1  LIG1       -0.0188
      2 N          -2.8028    0.9936   -0.0046 N.3     1  LIG1       -0.3327
      3 H          -4.5466    1.9482    0.4190 H       1  LIG1        0.0386
      4 H          -4.5496    0.1455    0.6159 H       1  LIG1        0.0386
      5 H          -4.5496    0.8844   -1.0497 H       1  LIG1        0.0386
      6 H          -2.5854    1.1397    0.9685 H       1  LIG1        0.1180
      7 H          -2.5854    1.8131   -0.5492 H       1  LIG1        0.1180
@<TRIPOS>BOND
     1     1     2    1
     2     1     3    1
     3     1     4    1
     4     1     5    1
     5     2     6    1
     6     2     7    1
